64

   S      2.258349      6.545811     18.178293
   C      0.030123      3.242861     17.162293
   P      4.614495      7.543753     15.704293
   S      5.667196      3.901257     14.798293
   C      1.923099      2.538832     13.782293
   P      8.159934      3.323701     12.324293
   S      6.870582     -0.241903     11.418293
   T      3.076915      1.220856     10.410293
   P      8.547770     -2.174350      8.944293
   S      5.408853     -4.301122      8.038293
   A      2.168730     -1.073238      6.962293
   P      5.629863     -6.850331      5.564293
   S      1.840341     -6.725916      4.658293
   T      2.059199     -2.665907      3.650293
   P      0.520754     -8.918176      2.184293
   S     -2.471905     -6.590097      1.278293
   A     -0.403258     -2.511086      0.202293
   P     -4.828051     -7.588039     -1.195707
   S     -5.880753     -3.945543     -2.101707
   T     -1.951824     -2.899078     -3.109707
   P     -8.373490     -3.367987     -4.575707
   S     -7.084138      0.197617     -5.481707
   A     -2.565521     -0.509299     -6.557707
   P     -8.761326      2.130064     -7.955707
   S     -5.622409      4.256836     -8.861707
   T     -3.413056      0.843578     -9.869707
   P     -5.843419      6.806045    -11.335707
   S     -2.053897      6.681631    -12.241707
   C     -1.915144      2.699770    -13.257707
   P     -0.734310      8.873890    -14.715707
   S      2.258349      6.545811    -15.621707
   C      0.030123      3.242861    -16.637707
   S      2.258349     -6.590097    -18.181707
   G      0.435298     -2.254124    -17.087707
   P      4.614495     -7.588039    -15.707707
   S      5.667196     -3.945543    -14.801707
   G      1.643697     -1.509229    -13.707707
   P      8.159934     -3.367987    -12.327707
   S      6.870582      0.197617    -11.421707
   A      2.351965     -0.509299    -10.345707
   P      8.547770      2.130064     -8.947707
   S      5.408853      4.256836     -8.041707
   T      3.199500      0.843578     -7.033707
   P      5.629863      6.806045     -5.567707
   S      1.840341      6.681631     -4.661707
   A      1.116328      2.165721     -3.585707
   P      0.520754      8.873890     -2.187707
   S     -2.471905      6.545811     -1.281707
   T      0.091569      3.389837     -0.273707
   P     -4.828051      7.543753      1.192293
   S     -5.880753      3.901257      2.098293
   A     -1.809599      1.817188      3.174293
   P     -8.373490      3.323701      4.572293
   S     -7.084138     -0.241903      5.478293
   T     -3.290471      1.220856      6.486293
   P     -8.761326     -2.174350      7.952293
   S     -5.622409     -4.301122      8.858293
   A     -2.382286     -1.073238      9.934293
   P     -5.843419     -6.850331     11.332293
   S     -2.053897     -6.725916     12.238293
   G     -0.980155     -2.146478     13.332293
   P     -0.734310     -8.918176     14.712293
   S      2.258349     -6.590097     15.618293
   G      0.435298     -2.254124     16.712293
