64

   S      2.303102      6.553813     18.168851
   T     -0.260372      3.397838     17.160851
   P      4.659248      7.551754     15.694851
   S      5.711950      3.909258     14.788851
   T      1.783021      2.862793     13.780851
   P      8.204687      3.331702     12.314851
   S      6.915335     -0.233902     11.408851
   T      3.121668      1.228857     10.400851
   P      8.592523     -2.166348      8.934851
   S      5.453606     -4.293121      8.028851
   T      3.244253     -0.879862      7.020851
   P      5.674616     -6.842329      5.554851
   S      1.885094     -6.717915      4.648851
   T      2.103953     -2.657906      3.640851
   P      0.565507     -8.910175      2.174851
   S     -2.427152     -6.582096      1.268851
   T      0.136322     -3.426122      0.260851
   P     -4.783298     -7.580038     -1.205149
   S     -5.835999     -3.937542     -2.111149
   T     -1.907070     -2.891077     -3.119149
   P     -8.328737     -3.359986     -4.585149
   S     -7.039385      0.205618     -5.491149
   T     -3.245718     -1.257140     -6.499149
   P     -8.716573      2.138065     -7.965149
   S     -5.577656      4.264837     -8.871149
   T     -3.368303      0.851579     -9.879149
   P     -5.798666      6.814046    -11.345149
   S     -2.009144      6.689632    -12.251149
   T     -2.228002      2.629623    -13.259149
   P     -0.689557      8.881891    -14.725149
   S      2.303102      6.553813    -15.631149
   T     -0.260372      3.397838    -16.639149
   S      2.303102     -6.582096    -18.191149
   A      0.234455     -2.503085    -17.115149
   P      4.659248     -7.580038    -15.717149
   S      5.711950     -3.937542    -14.811149
   A      1.640796     -1.853472    -13.735149
   P      8.204687     -3.359986    -12.337149
   S      6.915335      0.205618    -11.431149
   A      2.396718     -0.501298    -10.355149
   P      8.592523      2.138065     -8.957149
   S      5.453606      4.264837     -8.051149
   A      2.213483      1.036953     -6.975149
   P      5.674616      6.814046     -5.577149
   S      1.885094      6.689632     -4.671149
   A      1.161082      2.173722     -3.595149
   P      0.565507      8.881891     -2.197149
   S     -2.427152      6.553813     -1.291149
   A     -0.358505      2.474801     -0.215149
   P     -4.783298      7.551754      1.182851
   S     -5.835999      3.909258      2.088851
   A     -1.764846      1.825189      3.164851
   P     -8.328737      3.331702      4.562851
   S     -7.039385     -0.233902      5.468851
   A     -2.520768      0.473015      6.544851
   P     -8.716573     -2.166348      7.942851
   S     -5.577656     -4.293121      8.848851
   A     -2.337533     -1.065237      9.924851
   P     -5.798666     -6.842329     11.322851
   S     -2.009144     -6.717915     12.228851
   A     -1.285131     -2.202005     13.304851
   P     -0.689557     -8.910175     14.702851
   S      2.303102     -6.582096     15.608851
   A      0.234455     -2.503085     16.684851
